Version 4
SHEET 1 1584 680
WIRE 1008 -144 864 -144
WIRE 1472 -144 1008 -144
WIRE 1472 -112 1472 -144
WIRE 432 -96 -96 -96
WIRE 624 -96 528 -96
WIRE 432 -64 432 -96
WIRE 624 -48 624 -96
WIRE 528 -32 528 -96
WIRE 368 -16 352 -16
WIRE 1008 -16 1008 -144
WIRE 1472 32 1472 -32
WIRE 624 64 624 32
WIRE 528 80 528 48
WIRE 192 96 48 96
WIRE 352 96 352 -16
WIRE 352 96 272 96
WIRE 1248 112 1200 112
WIRE 1424 112 1328 112
WIRE -96 128 -96 -96
WIRE 48 128 48 96
WIRE 864 128 864 -144
WIRE 432 144 432 32
WIRE 576 144 432 144
WIRE 1200 160 1200 112
WIRE 432 192 432 144
WIRE 352 240 352 96
WIRE 368 240 352 240
WIRE -96 288 -96 208
WIRE 48 288 48 208
WIRE 1200 304 1200 240
WIRE 1344 304 1200 304
WIRE 1472 304 1472 128
WIRE 1472 304 1344 304
WIRE 432 336 432 288
WIRE 624 336 624 160
WIRE 1344 352 1344 304
WIRE 864 400 864 208
WIRE 1008 400 1008 48
WIRE 1008 400 864 400
WIRE 1472 400 1472 304
WIRE 1472 400 1008 400
FLAG 48 288 0
FLAG -96 288 0
FLAG 432 336 0
FLAG 624 336 0
FLAG 528 80 0
FLAG 1344 352 0
SYMBOL voltage 48 112 R0
WINDOW 3 -25 100 Left 1
WINDOW 123 0 0 Left 0
WINDOW 39 0 0 Left 0
SYMATTR Value PULSE(0 10 0 10n 10n 5u 10u)
SYMATTR InstName V_PWM
SYMBOL res 288 80 R90
WINDOW 0 0 56 VBottom 2
WINDOW 3 32 56 VTop 2
SYMATTR InstName R_g
SYMATTR Value {Rg}
SYMBOL npn 368 -64 R0
SYMATTR InstName Q1
SYMATTR Value 2N3904
SYMBOL pnp 368 192 R0
SYMATTR InstName Q2
SYMATTR Value 2N2907
SYMBOL nmos 576 64 R0
SYMATTR InstName M1
SYMATTR Value AO6408
SYMBOL voltage -96 112 R0
WINDOW 123 0 0 Left 0
WINDOW 39 0 0 Left 0
SYMATTR InstName Vd
SYMATTR Value 30
SYMBOL voltage 528 -48 R0
WINDOW 123 0 0 Left 0
WINDOW 39 0 0 Left 0
SYMATTR InstName Vs
SYMATTR Value 20
SYMBOL res 608 -64 R0
SYMATTR InstName R2
SYMATTR Value 20
SYMBOL voltage 1200 144 R0
WINDOW 123 0 0 Left 0
WINDOW 39 0 0 Left 0
SYMATTR InstName V_gg1
SYMATTR Value PULSE(0 10 0 10n 10n 5u 10u)
SYMBOL nmos 1424 32 R0
SYMATTR InstName M2
SYMATTR Value AO6408
SYMBOL res 1344 96 R90
WINDOW 0 0 56 VBottom 2
WINDOW 3 32 56 VTop 2
SYMATTR InstName R_g1
SYMATTR Value 15
SYMBOL res 1456 -128 R0
SYMATTR InstName R_L1
SYMATTR Value 20
SYMBOL cap 992 -16 R0
SYMATTR InstName C1
SYMATTR Value 1m
SYMBOL voltage 864 112 R0
WINDOW 123 0 0 Left 0
WINDOW 39 0 0 Left 0
SYMATTR InstName V1
SYMATTR Value 20
TEXT -152 328 Left 2 !.tran 0 1m 0.98m 0.1n
TEXT 560 144 Left 2 ;G
TEXT 624 56 Left 2 ;D
TEXT 624 176 Left 2 ;S
TEXT -152 360 Left 2 !.step param Rg 2 50 12
TEXT 1408 96 Left 2 ;G
TEXT 1472 24 Left 2 ;D
TEXT 1472 144 Left 2 ;S
