Version 4
SHEET 1 880 680
WIRE 352 -64 -112 -64
WIRE 352 -32 352 -64
WIRE -112 64 -112 -64
WIRE 352 112 352 48
WIRE 128 192 80 192
WIRE 304 192 208 192
WIRE 80 240 80 192
WIRE 80 384 80 320
WIRE 224 384 80 384
WIRE 352 384 352 208
WIRE 352 384 224 384
WIRE 224 432 224 384
WIRE -112 480 -112 128
WIRE 352 480 352 384
WIRE 352 480 -112 480
FLAG 224 432 0
SYMBOL voltage 80 224 R0
SYMATTR InstName V_gg
SYMBOL nmos 304 112 R0
SYMATTR InstName M1
SYMBOL res 224 176 R90
WINDOW 0 0 56 VBottom 2
WINDOW 3 32 56 VTop 2
SYMATTR InstName R1
SYMBOL res 336 -48 R0
SYMATTR InstName R_L
SYMBOL cap -128 64 R0
SYMATTR InstName C1
TEXT 288 176 Left 2 ;G
TEXT 352 104 Left 2 ;D
TEXT 352 224 Left 2 ;S
